/*--------------------------------*- C++ -*----------------------------------*\
  =========                 |				
  \\      /  F ield         | OpenFOAM: The Open Source CFD Toolbox
   \\    /   O peration     | Website:  https://openfoam.org
    \\  /    A nd           | Version:  9                                   	
     \\/     M anipulation  |
\*---------------------------------------------------------------------------*/
FoamFile
{
    format      ascii;
    class       volVectorField;
    object      U;
}
// * * * * * * * * * * * * * * * * * * * * * * * * * * * * * * * * * * * * * //

dimensions      [0 1 -1 0 0 0 0];

//internalField   uniform (1 1 0);
internalField   uniform (1 1 0);

boundaryField
{
    top
    {
/*
        type            fixedValue;
        value           uniform (1 1 0);
*/
        type            zeroGradient;
    }

    left
    {

        type            fixedValue;
        value           uniform (1 1 0);

//        type            zeroGradient;
    }

    right
    {
/*
        type            fixedValue;
        value           uniform (1 1 0);
*/
        type            zeroGradient;
    }

    bottom
    {

        type            fixedValue;
        value           uniform (1 1 0);

//      type            zeroGradient;
    }

    frontAndBack
    {
        type            empty;
    }
}

// ************************************************************************* //

