/*--------------------------------*- C++ -*----------------------------------*\
  =========                 |				
  \\      /  F ield         | OpenFOAM: The Open Source CFD Toolbox
   \\    /   O peration     | Website:  https://openfoam.org
    \\  /    A nd           | Version:  9                                   	
     \\/     M anipulation  |
\*---------------------------------------------------------------------------*/
FoamFile
{
    format      ascii;
    class       dictionary;
    object      sampleDict;
}
// * * * * * * * * * * * * * * * * * * * * * * * * * * * * * * * * * * * * * //

type sets;

libs ("libsampling.so");

interpolationScheme cellPoint;

setFormat       raw;

sets
(
    line_centreProfile
    {

	type    lineUniform;
        axis    distance;
        start   ( 0.5 0 0 );
        end     ( 0.5 1 0 );
        nPoints 120;

    }
);

fields          ( T );

// ************************************************************************* //
