/*--------------------------------*- C++ -*----------------------------------*\
  =========                 |
  \\      /  F ield         | OpenFOAM: The Open Source CFD Toolbox
   \\    /   O peration     | Website:  https://openfoam.org
    \\  /    A nd           | Version:  9
     \\/     M anipulation  |
\*---------------------------------------------------------------------------*/
FoamFile
{
    format      ascii;
    class       polyBoundaryMesh;
    location    "constant/polyMesh";
    object      boundary;
}
// * * * * * * * * * * * * * * * * * * * * * * * * * * * * * * * * * * * * * //

5
(
    top
    {
        type            wall;
        inGroups        List<word> 1(wall);
        nFaces          60;
        startFace       7080;
    }
    left
    {
        type            wall;
        inGroups        List<word> 1(wall);
        nFaces          60;
        startFace       7140;
    }
    right
    {
        type            wall;
        inGroups        List<word> 1(wall);
        nFaces          60;
        startFace       7200;
    }
    bottom
    {
        type            wall;
        inGroups        List<word> 1(wall);
        nFaces          60;
        startFace       7260;
    }
    frontAndBack
    {
        type            empty;
        inGroups        List<word> 1(empty);
        nFaces          7200;
        startFace       7320;
    }
)

// ************************************************************************* //
